8

  O     -0.080042    1.404635   -0.199947
  C      0.251571    0.109977   -0.144304
  O      1.290538   -0.364759   -0.525493
  C     -0.888789   -0.697527    0.480934
  O     -0.551960   -1.990257    0.548586
  O     -1.932047   -0.224356    0.852221
  H      0.681936    1.855874   -0.604049
  H     -1.314526   -2.441748    0.951291