13

  O     -4.212823    2.499775    4.172209
  C     -3.814051    1.654477    3.442883
  O     -2.705589    0.918956    3.611013
  Th    -2.051073   -0.589014    2.170925
  O     -3.928763    0.223176    1.508279
  C     -4.557478    1.246035    2.124788
  O     -5.546442    1.773910    1.744945
  O     -1.311989   -1.772803    0.483238
  C     -0.474397   -1.297711   -0.447893
  O     -0.078057   -1.874053   -1.405595
  C     -0.055026    0.169261   -0.093695
  O      0.708164    0.810874   -0.731524
  O     -0.674446    0.584506    1.028727