13

  Ac     0.015031   -0.124101   -0.098582
  O     -0.545580   -0.995497   -2.401220
  O     -1.023362    1.708359    0.609931
  O      1.697791   -1.217091    1.432183
  N     -1.679587    2.800601    1.091960
  N     -1.256826   -1.998249   -2.015741
  N      2.753326   -0.821025    0.808014
  O     -1.542327    3.826402    0.460034
  O     -2.330637    2.626647    2.100995
  O      2.536476   -0.088998   -0.229809
  O      3.862890   -1.116127    1.167781
  O     -1.388196   -2.121431   -0.739742
  O     -1.761419   -2.766527   -2.792131