22

C     -2.943544    0.007048    3.020807
O     -2.478466   -1.144137    2.715815
O     -2.856750    0.995090    2.227889
C     -3.513626   -0.570895   -1.434260
O     -3.205217   -1.619526   -0.774459
O     -2.986248    0.559064   -1.186254
C      0.850483   -0.117901    0.244731
O      0.322186   -1.282141    0.258597
O      0.152995    0.936845    0.367363
Nd    -1.806619   -0.371578    0.617861
C     -4.498770   -0.692629   -2.550029
C      2.328608   -0.004512    0.056903
C     -3.584855    0.187864    4.357891
H     -4.969483    0.266048   -2.752900
H     -3.957944   -1.010376   -3.443814
H     -5.238234   -1.456045   -2.318115
H      2.673644    0.992141    0.319150
H      2.837916   -0.764206    0.647094
H      2.555523   -0.196566   -0.993369
H     -4.119769    1.132624    4.404738
H     -4.250470   -0.648663    4.564678
H     -2.802070    0.178201    5.118355