13

  C      1.297353    3.588923   -1.643503
  O      2.223782    2.734632   -1.794863
  O      0.070734    3.284895   -1.561370
  C     -0.490127    0.346310   -3.772921
  O      0.742124    0.627976   -3.873335
  O     -1.151397    0.468485   -2.697168
  C      1.235389   -0.417049    0.045452
  O      1.828276   -0.555008   -1.065406
  O      0.370105    0.483320    0.272600
  Lu     0.688050    1.186462   -1.767918
  H     -1.009714   -0.022007   -4.662833
  H      1.484208   -1.108776    0.855995
  H      1.577018    4.644917   -1.577849
