9

  Th     0.139082   -0.929135    0.214342
  O      1.755842    0.454335    0.119333
  O      0.881180   -2.851673    0.753063
  O     -0.812569   -1.044328   -1.687815
  O     -1.269035   -0.276244    1.673137
  H      2.480668    1.078327    0.072845
  H      1.219690   -3.714586    0.993308
  H     -1.238907   -1.096297   -2.543649
  H     -1.899462    0.016759    2.331646