9

  Pu     0.140730   -0.929261    0.212230
  O      1.654721    0.334877    0.151606
  O      0.860482   -2.701306    0.696126
  O     -0.796341   -1.114589   -1.514491
  O     -1.160047   -0.235286    1.522982
  H      2.391056    0.942853    0.138947
  H      1.219273   -3.559070    0.914392
  H     -1.261651   -1.216661   -2.342392
  H     -1.791732    0.115601    2.146812