9

  O     -1.789446   -1.077657    0.868734
  C     -0.683474   -1.247601    0.134849
  O     -0.233413   -2.275331   -0.279730
  C     -0.021641    0.145232   -0.123544
  O      0.985924    0.287987   -0.751818
  O     -0.760079    1.098024    0.462525
  U     -2.500065    0.739168    1.539797
  O     -1.690878    0.528993    3.047680
  O     -3.541789    0.868217    0.172088