13

C      1.379570    3.792472   -1.594171
O      2.273125    2.903689   -1.726746
O      0.139977    3.523093   -1.527254
C     -0.613077    0.264212   -3.998744
O      0.592929    0.645192   -4.080899
O     -1.281257    0.309808   -2.919460
C      1.306172   -0.541038    0.217395
O      1.868960   -0.653044   -0.912414
O      0.421577    0.336201    0.465736
Pr     0.599259    1.194092   -1.751400
H     -1.103725   -0.122695   -4.900376
H      1.594068   -1.232319    1.019026
H      1.688222    4.843417   -1.533814