17

  Th    -0.491916    2.212338   -0.007675
  O     -0.543576    2.291352   -2.440956
  O     -2.864914    2.440873    0.011188
  O     -0.523032    2.243561    2.427101
  O      0.774951    0.131503   -0.017688
  N     -0.264748   -0.635798   -0.019275
  O     -1.389948    0.001268   -0.018441
  O     -0.193036   -1.830734   -0.021245
  N      0.558085    2.955934   -2.557434
  O      1.013191    3.284022   -3.614917
  O      1.126790    3.235488   -1.430066
  N      0.579697    2.905288    2.547103
  O      1.044367    3.212161    3.606800
  O      1.138751    3.207466    1.420508
  N     -2.906766    3.733738    0.032321
  O     -3.932437    4.350776    0.051249
  O     -1.745362    4.298175    0.031429