22

C     -2.859507   -0.058786    2.795167
O     -2.272612   -1.150598    2.505847
O     -3.091743    0.878605    1.966406
C     -3.286159   -0.527253   -1.303352
O     -3.115380   -1.536809   -0.547292
O     -2.653180    0.571610   -1.195925
C      0.491517   -0.094605    0.350091
O     -0.040702   -1.244875    0.234568
O     -0.123205    0.949787    0.739133
Lu    -1.883148   -0.254045    0.617291
C     -4.243488   -0.664127   -2.436406
C      1.951131    0.024959    0.078166
C     -3.372299    0.104937    4.184107
H     -4.590875    0.313350   -2.760845
H     -3.707683   -1.133226   -3.263290
H     -5.071016   -1.316952   -2.167508
H      2.209512    1.051990   -0.166515
H      2.478854   -0.256277    0.991048
H      2.257260   -0.665077   -0.705038
H     -3.502622    1.157862    4.420222
H     -4.346470   -0.384379    4.233763
H     -2.718894   -0.390341    4.899033