9

  O     -1.728656   -1.113973    0.952637
  C     -0.660538   -1.225342    0.159307
  O     -0.165621   -2.224166   -0.275071
  C     -0.111802    0.209088   -0.144069
  O      0.861857    0.415570   -0.807439
  O     -0.904946    1.102157    0.453248
  Pu    -2.508085    0.640566    1.588913
  O     -1.544316    0.579706    2.905547
  O     -3.452013    0.694146    0.257247