8

  C      1.142102    0.757612    0.828835
  C     -0.015206    0.235178    0.036039
  O     -0.609860    1.225760   -0.673221
  O     -0.400743   -0.908876    0.003598
  H      1.875624    1.201979    0.156307
  H      1.593054   -0.054175    1.391116
  H      0.800000    1.540265    1.505616
  H     -1.341221    0.800108   -1.152679